ECE6613PD/base2.cf
 10/11/12 POWER TECHNOLOGIES     50.0 0    0
BUS DATA FOLLOWS                      4 ITEMS
   1 ALTA          1  1  3 1.0200   0.00     0.00     0.00     0.00    0.00  138.00 1.0000   99.00  -99.00  0.0000  0.0000    0    1
   2 MEDIA         1  1  0 1.0000   0.00     3.00     2.32     0.00    0.00   38.00 0.0000    1.05    0.90  0.0000  0.0000    0    2
   3 CENTRO        1  1  0 1.0000   0.00     2.00     2.02     0.00    0.00   38.00 1.0000    1.00   -0.01  0.0000  0.0000    0    3
   4 FINAL         1  1  1 1.0000   0.00     2.00     2.32     3.00    0.20   38.00 0.0000    1.05    0.90  0.0000  0.0000    0    4
   5 FINAL2        1  1  1 1.0000   0.00     1.00     1.00     3.00    0.20   38.00 1.0000    1.05    0.90  0.0000  0.0000    0    5
-999
BRANCH DATA FOLLOWS                   3 ITEMS
   1    2  0  0 1 0  0.124573  0.070850   0.00000     0     0     0    0 0  0.0000    0.00 0.0000 0.00000.00000  0.0000 0.0000     1
   2    3  0  0 1 0  0.174573  0.090850   0.00000     0     0     0    0 0  0.0000    0.00 0.0000 0.00000.00000  0.0000 0.0000     2
   3    4  0  0 1 0  0.232573  0.115648   0.00000     0     0     0    0 0  0.0000    0.00 0.0000 0.00000.00000  0.0000 0.0000     3
   3    5  0  0 1 0  0.199430  0.105020   0.00000     0     0     0    0 0  0.0000    0.00 0.0000 0.00000.00000  0.0000 0.0000     4
-999
LOSS ZONES FOLLOWS                    0 ITEMS
-99
INTERCHANGE DATA FOLLOWS              1 ITEMS
 1    1 ALTA             0.0 999.99  0                                                                                             1
-9
TIE LINES FOLLOW                      0 ITEMS
-999
END OF DATA
